<?xml version="1.0" encoding="UTF-8"?>

<net version="1.20" junctionCornerDetail="5" limitTurnSpeed="5.50" avoidOverlap="0" xmlns:xsi="http://www.w3.org/2001/XMLSchema-instance" xsi:noNamespaceSchemaLocation="http://sumo.dlr.de/xsd/net_file.xsd">

    <location netOffset="0.00,0.00" convBoundary="-52.93,-38.90,34.63,35.61" origBoundary="-10000000000.00,-10000000000.00,10000000000.00,10000000000.00" projParameter="!"/>

    <edge id=":J1_0" function="internal">
        <lane id=":J1_0_0" index="0" speed="6.47" length="9.03" shape="-10.73,4.94 -11.09,2.48 -12.15,0.75 -13.91,-0.27 -16.37,-0.58"/>
    </edge>
    <edge id=":J1_1" function="internal">
        <lane id=":J1_1_0" index="0" speed="13.89" length="14.50" shape="-10.73,4.94 -10.72,-9.56"/>
    </edge>
    <edge id=":J1_2" function="internal">
        <lane id=":J1_2_0" index="0" speed="8.04" length="4.11" shape="-10.73,4.94 -10.19,1.06 -10.08,0.89"/>
    </edge>
    <edge id=":J1_12" function="internal">
        <lane id=":J1_12_0" index="0" speed="8.04" length="10.16" shape="-10.08,0.89 -8.54,-1.71 -5.79,-3.39 -1.93,-3.98"/>
    </edge>
    <edge id=":J1_3" function="internal">
        <lane id=":J1_3_0" index="0" speed="6.55" length="9.13" shape="-1.90,-0.78 -4.37,-0.41 -6.13,0.67 -7.18,2.45 -7.53,4.93"/>
    </edge>
    <edge id=":J1_4" function="internal">
        <lane id=":J1_4_0" index="0" speed="13.89" length="14.47" shape="-1.90,-0.78 -16.37,-0.58"/>
    </edge>
    <edge id=":J1_5" function="internal">
        <lane id=":J1_5_0" index="0" speed="7.98" length="4.03" shape="-1.90,-0.78 -5.77,-1.30 -5.88,-1.37"/>
    </edge>
    <edge id=":J1_13" function="internal">
        <lane id=":J1_13_0" index="0" speed="7.98" length="10.20" shape="-5.88,-1.37 -8.53,-2.94 -10.18,-5.69 -10.72,-9.56"/>
    </edge>
    <edge id=":J1_6" function="internal">
        <lane id=":J1_6_0" index="0" speed="6.48" length="9.03" shape="-7.52,-9.55 -7.18,-7.10 -6.13,-5.35 -4.38,-4.31 -1.93,-3.98"/>
    </edge>
    <edge id=":J1_7" function="internal">
        <lane id=":J1_7_0" index="0" speed="13.89" length="14.48" shape="-7.52,-9.55 -7.53,4.93"/>
    </edge>
    <edge id=":J1_8" function="internal">
        <lane id=":J1_8_0" index="0" speed="8.10" length="4.06" shape="-7.52,-9.55 -8.09,-5.69 -8.17,-5.56"/>
    </edge>
    <edge id=":J1_14" function="internal">
        <lane id=":J1_14_0" index="0" speed="8.10" length="10.24" shape="-8.17,-5.56 -9.75,-2.91 -12.51,-1.20 -16.37,-0.58"/>
    </edge>
    <edge id=":J1_9" function="internal">
        <lane id=":J1_9_0" index="0" speed="6.62" length="9.22" shape="-16.43,-3.78 -13.94,-4.18 -12.16,-5.28 -11.09,-7.07 -10.72,-9.56"/>
    </edge>
    <edge id=":J1_10" function="internal">
        <lane id=":J1_10_0" index="0" speed="13.89" length="14.51" shape="-16.43,-3.78 -1.93,-3.98"/>
    </edge>
    <edge id=":J1_11" function="internal">
        <lane id=":J1_11_0" index="0" speed="7.97" length="4.12" shape="-16.43,-3.78 -12.55,-3.30 -12.37,-3.19"/>
    </edge>
    <edge id=":J1_15" function="internal">
        <lane id=":J1_15_0" index="0" speed="7.97" length="10.13" shape="-12.37,-3.19 -9.77,-1.69 -8.09,1.05 -7.53,4.93"/>
    </edge>

    <edge id="-E0" from="J1" to="J0" priority="-1">
        <lane id="-E0_0" index="0" speed="13.89" length="30.68" shape="-7.53,4.93 -7.42,35.60"/>
    </edge>
    <edge id="-E1" from="J2" to="J1" priority="-1">
        <lane id="-E1_0" index="0" speed="13.89" length="29.34" shape="-7.42,-38.89 -7.52,-9.55"/>
    </edge>
    <edge id="-E3" from="J3" to="J1" priority="-1">
        <lane id="-E3_0" index="0" speed="13.89" length="36.54" shape="-52.96,-3.06 -16.43,-3.78"/>
    </edge>
    <edge id="-E4" from="J4" to="J1" priority="-1">
        <lane id="-E4_0" index="0" speed="13.89" length="36.54" shape="34.64,-1.08 -1.90,-0.78"/>
    </edge>
    <edge id="E0" from="J0" to="J1" priority="-1">
        <lane id="E0_0" index="0" speed="13.89" length="30.68" shape="-10.62,35.62 -10.73,4.94"/>
    </edge>
    <edge id="E1" from="J1" to="J2" priority="-1">
        <lane id="E1_0" index="0" speed="13.89" length="29.34" shape="-10.72,-9.56 -10.62,-38.91"/>
    </edge>
    <edge id="E3" from="J1" to="J3" priority="-1">
        <lane id="E3_0" index="0" speed="13.89" length="36.54" shape="-16.37,-0.58 -52.90,0.14"/>
    </edge>
    <edge id="E4" from="J1" to="J4" priority="-1">
        <lane id="E4_0" index="0" speed="13.89" length="36.54" shape="-1.93,-3.98 34.62,-4.28"/>
    </edge>

    <tlLogic id="J1" type="static" programID="0" offset="0">
        <phase duration="30" state="GGgrrrGGgrrr"/>
        <phase duration="3"  state="yyyrrryyyrrr"/>
        <phase duration="30" state="rrrGGgrrrGGg"/>
        <phase duration="3"  state="rrryyyrrryyy"/>
    </tlLogic>

    <junction id="J0" type="dead_end" x="-9.02" y="35.61" incLanes="-E0_0" intLanes="" shape="-9.02,35.61 -5.82,35.60 -9.02,35.61"/>
    <junction id="J1" type="traffic_light" x="-9.15" y="-2.32" incLanes="E0_0 -E4_0 -E1_0 -E3_0" intLanes=":J1_0_0 :J1_1_0 :J1_12_0 :J1_3_0 :J1_4_0 :J1_13_0 :J1_6_0 :J1_7_0 :J1_14_0 :J1_9_0 :J1_10_0 :J1_15_0" shape="-12.33,4.94 -5.93,4.92 -5.48,2.66 -4.92,1.86 -4.14,1.29 -3.12,0.94 -1.89,0.82 -1.94,-5.58 -4.16,-6.01 -4.93,-6.55 -5.49,-7.33 -5.82,-8.33 -5.92,-9.55 -12.32,-9.57 -12.79,-7.28 -13.37,-6.47 -14.17,-5.88 -15.20,-5.52 -16.46,-5.38 -16.34,1.02 -14.11,1.42 -13.34,1.96 -12.78,2.73 -12.44,3.72">
        <request index="0"  response="000000000000" foes="000100010000" cont="0"/>
        <request index="1"  response="100000100000" foes="111100110000" cont="0"/>
        <request index="2"  response="100011100000" foes="110111110000" cont="1"/>
        <request index="3"  response="000010000000" foes="100010000000" cont="0"/>
        <request index="4"  response="000110000111" foes="100110000111" cont="0"/>
        <request index="5"  response="011110000110" foes="111110000110" cont="1"/>
        <request index="6"  response="000000000000" foes="010000000100" cont="0"/>
        <request index="7"  response="100000100000" foes="110000111100" cont="0"/>
        <request index="8"  response="100000100111" foes="110000110111" cont="1"/>
        <request index="9"  response="000000000010" foes="000000100010" cont="0"/>
        <request index="10" response="000111000110" foes="000111100110" cont="0"/>
        <request index="11" response="000110111110" foes="000110111110" cont="1"/>
    </junction>
    <junction id="J2" type="dead_end" x="-9.02" y="-38.90" incLanes="E1_0" intLanes="" shape="-9.02,-38.90 -12.22,-38.91 -9.02,-38.90"/>
    <junction id="J3" type="dead_end" x="-52.93" y="-1.46" incLanes="E3_0" intLanes="" shape="-52.93,-1.46 -52.87,1.74 -52.93,-1.46"/>
    <junction id="J4" type="dead_end" x="34.63" y="-2.68" incLanes="E4_0" intLanes="" shape="34.63,-2.68 34.60,-5.88 34.63,-2.68"/>

    <junction id=":J1_12_0" type="internal" x="-10.08" y="0.89" incLanes=":J1_2_0 -E1_0" intLanes=":J1_4_0 :J1_5_0 :J1_6_0 :J1_7_0 :J1_10_0 :J1_11_0"/>
    <junction id=":J1_13_0" type="internal" x="-5.88" y="-1.37" incLanes=":J1_5_0 -E3_0" intLanes=":J1_1_0 :J1_2_0 :J1_7_0 :J1_8_0 :J1_9_0 :J1_10_0"/>
    <junction id=":J1_14_0" type="internal" x="-8.17" y="-5.56" incLanes=":J1_8_0 E0_0" intLanes=":J1_0_0 :J1_1_0 :J1_4_0 :J1_5_0 :J1_10_0 :J1_11_0"/>
    <junction id=":J1_15_0" type="internal" x="-12.37" y="-3.19" incLanes=":J1_11_0 -E4_0" intLanes=":J1_1_0 :J1_2_0 :J1_3_0 :J1_4_0 :J1_7_0 :J1_8_0"/>

    <connection from="-E1" to="E4" fromLane="0" toLane="0" via=":J1_6_0" tl="J1" linkIndex="6" dir="r" state="O"/>
    <connection from="-E1" to="-E0" fromLane="0" toLane="0" via=":J1_7_0" tl="J1" linkIndex="7" dir="s" state="O"/>
    <connection from="-E1" to="E3" fromLane="0" toLane="0" via=":J1_8_0" tl="J1" linkIndex="8" dir="l" state="o"/>
    <connection from="-E3" to="E1" fromLane="0" toLane="0" via=":J1_9_0" tl="J1" linkIndex="9" dir="r" state="o"/>
    <connection from="-E3" to="E4" fromLane="0" toLane="0" via=":J1_10_0" tl="J1" linkIndex="10" dir="s" state="o"/>
    <connection from="-E3" to="-E0" fromLane="0" toLane="0" via=":J1_11_0" tl="J1" linkIndex="11" dir="l" state="o"/>
    <connection from="-E4" to="-E0" fromLane="0" toLane="0" via=":J1_3_0" tl="J1" linkIndex="3" dir="r" state="o"/>
    <connection from="-E4" to="E3" fromLane="0" toLane="0" via=":J1_4_0" tl="J1" linkIndex="4" dir="s" state="o"/>
    <connection from="-E4" to="E1" fromLane="0" toLane="0" via=":J1_5_0" tl="J1" linkIndex="5" dir="l" state="o"/>
    <connection from="E0" to="E3" fromLane="0" toLane="0" via=":J1_0_0" tl="J1" linkIndex="0" dir="r" state="O"/>
    <connection from="E0" to="E1" fromLane="0" toLane="0" via=":J1_1_0" tl="J1" linkIndex="1" dir="s" state="O"/>
    <connection from="E0" to="E4" fromLane="0" toLane="0" via=":J1_2_0" tl="J1" linkIndex="2" dir="l" state="o"/>

    <connection from=":J1_0" to="E3" fromLane="0" toLane="0" dir="r" state="M"/>
    <connection from=":J1_1" to="E1" fromLane="0" toLane="0" dir="s" state="M"/>
    <connection from=":J1_2" to="E4" fromLane="0" toLane="0" via=":J1_12_0" dir="l" state="m"/>
    <connection from=":J1_12" to="E4" fromLane="0" toLane="0" dir="l" state="M"/>
    <connection from=":J1_3" to="-E0" fromLane="0" toLane="0" dir="r" state="M"/>
    <connection from=":J1_4" to="E3" fromLane="0" toLane="0" dir="s" state="M"/>
    <connection from=":J1_5" to="E1" fromLane="0" toLane="0" via=":J1_13_0" dir="l" state="m"/>
    <connection from=":J1_13" to="E1" fromLane="0" toLane="0" dir="l" state="M"/>
    <connection from=":J1_6" to="E4" fromLane="0" toLane="0" dir="r" state="M"/>
    <connection from=":J1_7" to="-E0" fromLane="0" toLane="0" dir="s" state="M"/>
    <connection from=":J1_8" to="E3" fromLane="0" toLane="0" via=":J1_14_0" dir="l" state="m"/>
    <connection from=":J1_14" to="E3" fromLane="0" toLane="0" dir="l" state="M"/>
    <connection from=":J1_9" to="E1" fromLane="0" toLane="0" dir="r" state="M"/>
    <connection from=":J1_10" to="E4" fromLane="0" toLane="0" dir="s" state="M"/>
    <connection from=":J1_11" to="-E0" fromLane="0" toLane="0" via=":J1_15_0" dir="l" state="m"/>
    <connection from=":J1_15" to="-E0" fromLane="0" toLane="0" dir="l" state="M"/>

</net>
