<?xml version="1.0" encoding="UTF-8"?>

<!-- generated on 2026-03-29T02:17:52.838126+05:30 by Eclipse SUMO netedit 1.26.0
-->

<routes xmlns:xsi="http://www.w3.org/2001/XMLSchema-instance" xsi:noNamespaceSchemaLocation="http://sumo.dlr.de/xsd/routes_file.xsd">
    <!-- Routes -->
    <route id="r_0" edges="E0 E1"/>
    <route id="r_1" edges="-E1 -E0"/>
    <route id="r_2" edges="-E3 E4"/>
    <route id="r_3" edges="-E4 E3"/>
</routes>
